*Heading
** Job name: builtin Model name: builtin
** Generated by: Abaqus/CAE 2022
*Preprint, echo=NO, model=NO, history=NO, contact=NO
**
** PARTS
**
*Part, name=Part-1
*Node
      1,           1.,           1.,           1.
      2,           1.,           0.,           1.
      3,           1.,           1.,           0.
      4,           1.,           0.,           0.
      5,           0.,           1.,           1.
      6,           0.,           0.,           1.
      7,           0.,           1.,           0.
      8,           0.,           0.,           0.
*Element, type=C3D8
1, 5, 6, 8, 7, 1, 2, 4, 3
*Nset, nset=wh, generate
 1,  8,  1
*Elset, elset=wh
 1,
*Orientation, name=Ori-1
1., 0., 0., 0., 1., 0.
1, 0.
** Section: Section-1
*Solid Section, elset=wh, orientation=Ori-1, material=Material-1
,
*End Part
**  
**
** ASSEMBLY
**
*Assembly, name=Assembly
**  
*Instance, name=Part-1-1, part=Part-1
*End Instance
**  
*Nset, nset=LOAD, instance=Part-1-1, generate
 1,  7,  2
*Elset, elset=LOAD, instance=Part-1-1
 1,
*Nset, nset=XSYMM, instance=Part-1-1, generate
 5,  8,  1
*Elset, elset=XSYMM, instance=Part-1-1
 1,
*Nset, nset=YSYMM, instance=Part-1-1, generate
 2,  8,  2
*Elset, elset=YSYMM, instance=Part-1-1
 1,
*Nset, nset=ZSYMM, instance=Part-1-1
 3, 4, 7, 8
*Elset, elset=ZSYMM, instance=Part-1-1
 1,
*End Assembly
*Amplitude, name=Amp-1
             0.,              0.,              1.,              1.
** 
** MATERIALS
** 
*Material, name=Material-1
*Elastic
200000., 0.3
*Plastic
    149.,          0.
 149.151,  6.0006e-05
 149.303, 0.000120012
 149.454, 0.000180018
 149.605, 0.000240024
 149.756,  0.00030003
 149.907, 0.000360036
 150.058, 0.000420042
 150.209, 0.000480048
 150.359, 0.000540054
  150.51,  0.00060006
  150.66, 0.000660066
  150.81, 0.000720072
 150.961, 0.000780078
 151.111, 0.000840084
 151.261,  0.00090009
  151.41, 0.000960096
  151.56,   0.0010201
  151.71,  0.00108011
 151.859,  0.00114011
** ... 9979 like lines cut
*Potential
 0.5, 0.5, 0.5, 1.5, 1.5, 1.5
** ----------------------------------------------------------------
** 
** STEP: Step-1
** 
*Step, name=Step-1, nlgeom=YES
*Static
1., 1., 1e-05, 1.
** 
** BOUNDARY CONDITIONS
** 
** Name: BC-1 Type: Symmetry/Antisymmetry/Encastre
*Boundary
XSYMM, XSYMM
** Name: BC-2 Type: Symmetry/Antisymmetry/Encastre
*Boundary
YSYMM, YSYMM
** Name: BC-3 Type: Symmetry/Antisymmetry/Encastre
*Boundary
ZSYMM, ZSYMM
** Name: BC-4 Type: Displacement/Rotation
*Boundary, amplitude=Amp-1
LOAD, 2, 2, 0.5
** 
** OUTPUT REQUESTS
** 
*Restart, write, frequency=0
** 
** FIELD OUTPUT: F-Output-1
** 
*Output, field, variable=PRESELECT
** 
** HISTORY OUTPUT: H-Output-1
** 
*Output, history, variable=PRESELECT
*End Step
